Circuit: * C:\Users\Dave\Documents\GitHub\Wind\LTSpice\Acourse_MOSFET_201710112.asc

Direct Newton iteration for .op point succeeded.

Date: Fri Nov 17 15:59:10 2017
Total elapsed time: 0.153 seconds.

tnom = 27
temp = 27
method = modified trap
totiter = 2803
traniter = 2774
tranpoints = 1246
accept = 1180
rejected = 66
matrix size = 21
fillins = 4
solver = Normal
Matrix Compiler1: 1.69 KB object code size  0.6/0.3/[0.2]
Matrix Compiler2: off  [0.3]/0.3/0.4

